28

 C                 -5.43771331   -0.22796352    0.00000000
 C                 -4.04255331   -0.22796352    0.00000000
 C                 -3.34501531    0.97978748    0.00000000
 C                 -4.04266931    2.18829648   -0.00119900
 C                 -5.43749431    2.18821848   -0.00167800
 C                 -6.13509531    0.98001248   -0.00068200
 H                 -5.98747231   -1.18028052    0.00045000
 H                 -2.24533531    0.97986748    0.00063400
 H                 -3.49246931    3.14043948   -0.00125800
 H                 -5.98761631    3.14049948   -0.00263100
 N                 -3.30798062   -1.50126626    0.00175787
 H                 -2.73381416   -1.55598112   -0.81515043
 H                 -2.73235360   -1.55288408    0.81783945
 C                 -7.67509527    0.98026877   -0.00093409
 H                 -8.03170031    0.48450308   -0.87954050
 H                 -8.03198917    0.46739598    0.86767874
 C                 -8.18818956    2.43221042    0.01319711
 H                 -7.83548561    2.94362723   -0.85798185
 H                 -7.82740538    2.92947810    0.88924484
 N                 -9.65817382    2.43239135    0.01999714
 C                -10.14251778    3.12034213    1.22541601
 H                 -9.69633202    4.09100531    1.28567591
 H                -11.20678072    3.21944116    1.17618413
 H                 -9.87699012    2.55133297    2.09180140
 C                -10.15362085    3.13047795   -1.17503731
 H                -11.22128092    3.18977519   -1.13649106
 H                 -9.74250618    4.11781473   -1.20745352
 H                 -9.85770680    2.59197476   -2.05102200